Version 4
SHEET 1 1148 688
WIRE 192 304 112 304
WIRE 288 304 272 304
WIRE 304 304 288 304
WIRE 464 304 384 304
WIRE 288 432 288 304
WIRE 320 432 288 432
WIRE -112 464 -208 464
WIRE 48 464 -112 464
WIRE 208 464 128 464
WIRE 320 464 208 464
WIRE 464 480 464 304
WIRE 464 480 384 480
WIRE 656 480 544 480
WIRE 912 496 800 496
WIRE 720 528 592 528
WIRE 800 528 800 496
WIRE 592 544 592 528
FLAG 768 256 0
FLAG 768 176 +20V
FLAG 384 416 +20V
FLAG 384 448 0
FLAG 464 224 +20V
FLAG -208 544 0
FLAG -112 528 0
FLAG -208 464 VBus
FLAG 960 512 0
FLAG 960 336 VBus
FLAG 112 304 +20V
FLAG 592 624 0
FLAG 592 432 +20V
FLAG 208 544 0
SYMBOL voltage 768 160 R0
SYMATTR InstName V2
SYMATTR Value 20
SYMBOL AutoGenerated/LM393A 352 448 R0
SYMATTR InstName U1
SYMBOL Res 288 288 R90
WINDOW 0 0 56 VBottom 2
WINDOW 3 32 56 VTop 2
SYMATTR InstName R2
SYMATTR Value 1k
SYMBOL Res 480 320 R180
WINDOW 0 36 76 Left 2
WINDOW 3 36 40 Left 2
SYMATTR InstName R3
SYMATTR Value 2k
SYMBOL current -208 544 R180
WINDOW 0 36 36 Left 2
WINDOW 3 24 0 Left 2
SYMATTR InstName I1
SYMATTR Value PULSE(0 200m 1m 100u 100u 30m 100 100)
SYMBOL Cap -128 464 R0
SYMATTR InstName C1
SYMATTR Value 100µ
SYMBOL nmos 912 416 R0
SYMATTR InstName M1
SYMATTR Value PSMN2R880BS
SYMBOL Res 944 320 R0
SYMATTR InstName R5
SYMATTR Value 10
SYMBOL Res 400 288 R90
WINDOW 0 0 56 VBottom 2
WINDOW 3 32 56 VTop 2
SYMATTR InstName R1
SYMATTR Value 47k
SYMBOL pnp 656 528 R180
SYMATTR InstName Q1
SYMATTR Value 2N2907
SYMBOL Res 576 528 R0
SYMATTR InstName R4
SYMATTR Value 100
SYMBOL Res 560 464 R90
WINDOW 0 0 56 VBottom 2
WINDOW 3 32 56 VTop 2
SYMATTR InstName R6
SYMATTR Value 4k7
SYMBOL Res 816 512 R90
WINDOW 0 0 56 VBottom 2
WINDOW 3 32 56 VTop 2
SYMATTR InstName R7
SYMATTR Value 10
SYMBOL Res 224 560 R180
WINDOW 0 36 76 Left 2
WINDOW 3 36 40 Left 2
SYMATTR InstName R8
SYMATTR Value 10k
SYMBOL Res 32 480 R270
WINDOW 0 32 56 VTop 2
WINDOW 3 0 56 VBottom 2
SYMATTR InstName R9
SYMATTR Value 10k
TEXT -224 136 Left 2 !.tran 1n 50m startup
